128 64
.#.#...#.....##.#..#..##....#....#.......###....#...#...#.##....
#.....#..##.##.#..##..##..###...##..#.#.#.#..##.#.#..#.#.##.#.#.
#....##..##....#...#.#.#.#.#...#.#.##...#..#.##.#.#.##..##..##.#
....#..##...###.#..#...#...###.#..##..#.##.....#..#.####..##.#..
.####.#.#....####..##.##..####.#.#..#....#.#...#.#.###...#.....#
###..#####..#........#.............#.#..........#.#..#...##..#.#
#..........#.##........####....#...#.#...#.##..##.#..##...##....
...#.....#.#...###.#..#.#.#..#.#.......#..##.#.###.#......#.#...
##.#....#.#######.##...#####.###.#.#.#.##.#.#...##...#...#.#....
.##....####...#.##.####.#..#.......##...###..#....##.#.##.##.#..
####..#.#.##.##..##.###....#....#...###.#.#....#.....#..#.#.....
.###.#...#...........##.......#.##.##.............#....##..#....
.#..#.#..#.####..#..####.....#...#..#..#..#...#...#....#..##...#
........#.#..#.##...###.#.....#.....##...#..#.#.....#..#.#..#...
.......#...#.#...###.#....#######.....#....#..#.........##.....#
#.#....#........##.#..#..##....###..#...###..#.##....#.###...#.#
..###.##.....#....#.#.#....#....#....##.##.#...##.#..#...#......
#.#.#.#.####....###..##.#.#..#.###.#..####.#.#.#.#.#..#..#..##.#
......#......#.#.##..###.##.##..####..##.#....#.#..#.#.###.###..
..#.##...#....#...#...##.#..#.#..#....##...........##..##.#.....
###..#.#...#...##..........##.....#....##....#.....#####.....##.
......##.#.#...#.##.####...#.#...#.#....##..####..#.##...#...#..
###.#....##..#..###..#.#.#..###.#.....#.##.#.#.#.#.####......#..
#....#..##.#.#..#..##.#........##....#..#.....#..#.#.....##.....
.####.#.#....#.#.#...####..#..#...#..#..##.#.#.####.##.###.#..#.
.#.##########.....#.......#....####..........#######...#.#..##..
#..##.#.###..#.....#........#.###...#.....#####...##.#.##..##.#.
#..####.......#..#.#....#.#..##..#.#....##......#.#........#....
.#......##.#...#...#.....#.##.#.#.##...#.#.#.......#....##...##.
.##..#.....##.####....###...###.##.####......#..##.###..#.#..#..
#....#........######...#.##.......#....#..##.##......#...#...##.
#..###.#.........#......##...##..##.#..#.####..#.....###....##.#
#....##.#..#..##..#.#..####....##.###.###..#..##.#..##..####.##.
.#........#..#...#.###.#.#...#...#.........#.#.##..#....###..#.#
##.####..###.......##..#....#....##..#...#..###..#.###..#..#.##.
..##.####...#.##..#..#....#.#...#...#.#...##.#....#...#..####.#.
.##..#...##.#.#.##...#.......##.##.####.#..#...#.##.#....#.#.#..
...##..###....#.#.#.#..#...#.#.##....#..#.....####..#..####.##..
......##..#...##.#.#.##..##...#.#......#......#...#....##..###..
#....#.#####...#.##.###.##.#....#..........#.#....#.###...##.#..
.###....##.#..##.###..#..##.###.###.#.....#.#.##.#.#...##......#
..##..###..#...###...#...#.......#..####........#.#........####.
#...##.###...##.##...##.#.........#..###..........##..#####.....
..#...###..##...###..#...####.###.##........#.#...#..##.#.....##
#.#...#........##..##..#....##........#.........#..#.#..##....#.
#..#..#.#.##.####.######..#.....#.....#.###...#.#.......###.....
.#.##.#.....#.##...#.#.#...##...##..##..#.#.#.#....#.##.##..#.#.
.#....#..#.#..#.###.#.##.#..#..##..###....###.#..##.#.###.###.#.
...#....####..#.........#.##.#.##...#..#....#....#.....##...#...
....#########.##....#..#.#..#.#..#..##.#.#....#.#.#.#...#....##.
#..####.#.#..#..#...###.#.###......###...#...#..#.#.#...#.##..##
.##........#.##..######.....#.####.#.###....#...........#..#...#
#......##........#..#.#...#........#...#.#####.##.##.#####.##...
.#....#.########.#####.#..#..#.###.#.#.#..######..######.....##.
..#.............###.#.##.#....###.#..#...#...#.##.#.#...#.###..#
.#.#...##..#.#.....#....#.#......##.####.#..#.####..##..#.##..##
.#..##.#..#..####.#.#..#.#...#.#...#..##......#.#..####.####...#
.#..#.....#..#....#..#....#...##.###..#..##..#.##.#.#..#.#..#...
..##.##..#.#..###.#.#.#.##...#..#.#..#...#...#..#.#..##...##....
#...##.#.####.#.##.#.#.....#......####.#....###.#.....#..##...##
#.####..##.#.#..#..#.#.#.#...#........#...##......#.#....###.#..
...###...#...#..#..#.#.##...#.#.###...##..#.#.#..#.#.#..#.##...#
#........##..#...#...#....##..###....#....##..###..#.###....##..
..#...#...#..........##.#.#.##.#......##.###.#....#.#####.##.##.
...##...#...##..###..#.##.##......#..#....#..##......#....#.####
..#.##.#.###.#....##.#.##.#....#.#...#.##.#......#..#....##...#.
#....###.#.#.#####.####..###.........##.....#.....######..#.#.#.
###....#.##.##.#...#...#.......##.#.#..####....#.######...#.##..
#.#..#.##.#.#.#.....##..#..###.#..........#..##.####....#...#..#
......#.#..##..##.###...#...##.####......#.##......###....###.##
.#.#....#.##.....#.#....##..###.#.#...#...#.#.##..######....##..
..#.......##.#.###........#.##..#.#.#..####..#.#...#.........#..
####......#.#####....#....##..#.#.#.##..##.##..#.#........##...#
...........#.....#..#..#..#..#.....#.##...##..#.#...#..#......#.
.#......#...#...#.##.#...##..#.##.#....##......#..#...#.#..#..##
#.#.#.....##.##..###.####...##..###.###.#...#..#..##....##......
##..##........#.##.#...#...#..###..####...##.#.....#.#...###.#.#
.#.........#...#.####.#...#..##....#.#.#.#.##.#....##..#.....#.#
...#.##....#####X#.####.###..#..#...#..#...###.#..##..#.....#...
#...##......##.#.###....#.#.##.##....#.#..#.#...####..#.#.##.#..
##..#...###.....##...#.###..#.#.#..##.###......#.....##.#..##...
...#..#...#.#.....#..#...#..#..#.#................#.##.#....#...
#........#...#..#..#..#.##....###...##.###...#.#.#........##..#.
..#......#..#.##..#....##..####.#..#.#.#...##.##....##...#.##.##
...........#.#......#..#..####.##..#...#.#........#.......##.###
#..##..#.#.####...#####....####.#.#.....###...##.##.#...#.###.#.
######...##.......###...#..##..#.##......#.#..##..##....###.#...
.#.####....#.#...###..#....#.....#..#.....##....####...##..#...#
##.....#.#...#.#.###..#.#..##.##.....###.#.#...##..#...#.....###
.#...##.####..#....#.##........#..#.##.##.##...#..###.###.####..
#.#..####..#.....##.###..#.#.#.####.#.#........#.........####...
######...###.###.#.##.###.##.##..##.#.##....#.##...##..#..#..###
..#.#......#.##...#......##.#.#.#.#...#.........##.....####..##.
.##.#...##...#.###..#..##...#....#..###..#.#.##.#.#..#.###.#..#.
.##...#.#.....#.....##..#....##..#####....##...##...#.#...#..#..
...#.#..##...##.##.#.....#...#.....##..#...#.#...#.#####........
.#.###.###.........#...#...##..##....##..#....#.####.#..##.##...
..#...##........##.#...#..#...#.#.#....##...########.#.##...#...
#...##.#.....#....#.##.##..###..#...##..#.#.....##.##.....##....
.....##..#.#######.#....#......##..##....##.##.#...#.#..###...##
.#.##.....#.#..###.#....##.#...#.#.#...##.....##.....##....#.##.
..#..#......###...#...#..#....###..##.##...###..#..#.#.####..##.
.#.#.#.#......#.....##....#..##.##.##...#........#.#..##..#..#..
#.#.....##.#........##...#.##.##.....#.#.###..#.#.##.#.#..#.....
#.##.#.#.##.#....#.#.#.#.........#....##.E.....###.#.#.##......#
.....##......##....####.......#...#..#..###..#...#.#..##.#.##..#
#...#......####.##..###.#.#.#......#...#.#........##.........#..
###.##......#.#......#.##..######..#..#.#..#.....##.#.#..#...#..
.###...#.....#..###.#.#......#.....#.##..###....##.#.#.....##.#.
#...##.#.###...#....#.......#.#....#..#....##.#....#.#....#.##.#
......##.#..##..##.#..##.##.##..###............#.###.#..###.###.
..##..####....##..#...##.##.#........#####.#...#.######..#.#.#..
.###..#.#.#..#.###.#.####..#..#..#..##..##...#.#..#...####.##.#.
...#....##..........##.##..##.#..##...#.#....##..##.#.#.#..#....
....###..##.....#....##....###....##....#..##........##.......#.
#.#.#...#.##.#.#..#....#...##..#.........######..###.#..#...#.#.
...###.###....##....##..#.#.###......#.#..#.#.##...#.......#.#..
##...##..#........#..#.##.#..#...#.###....#..####.......####....
....##.....#.#...##....#..##...........#.....##.....#....#.....#
...#.#..##.##.#.......#.#..#...#.#...#..##..###.#..#.#.....##...
.#.##.##..#...##.#...#...#......###...##..##....###.....###....#
...#.#......#..##.....#.###.#.....#.#####..#.##.....#.#.....#..#
..#..##.#####..##......#..#...#.....##.#.#...##..##..###.#..#..#
#.#.....#..#.....#.###.##.#.##........###.#...#..#.#.##.###.#.#.
.#.#.#.#....#......#...##...#....#..##......##..#...#.....#..#..
.##.####...##.###......#.#.##.....#..##.#.....###.#####.#####...
#...#..#..###.....#..###..###.###...#...##.....#.#...#..#....##.
#...###.#.###..##..###.#......###...#..#..##.##.#.....##......#.
